 # crystal structure from test_output_from_kelvin.XV
 CRYSTAL
 # Cell vectors in Angstroem:
 PRIMVEC
  15.1270358   8.7322218  -0.0204709
  15.1286206  -8.7349757  -0.0311542
  -0.1111721   0.0414734  67.7945335
 # Atom coordinates in Angstroem:
 PRIMCOORD
  102    1
   6          1.41736730          0.02067641         33.81354518
   6          2.85700311          0.02044814         33.80058603
   6          3.57830581          1.26740032         33.79974508
   6          5.01869721          1.26725534         33.79163270
   6          3.57842217         -1.22663416         33.79838922
   6          5.01889137         -1.22686854         33.79048647
   6          5.73858851          0.02013747         33.78546758
   6          7.17938585          0.02002559         33.78746147
   6          5.73934054          2.51400835         33.79799621
   6          7.17977024          2.51469228         33.79622861
   6          7.89931895          1.26675113         33.79317571
   6          9.33970209          1.26644418         33.80957049
   6         10.05768446          0.01972204         33.82364396
   6         11.49982216          0.01948946         33.86562193
   6          7.89951264         -1.22682770         33.79202279
   6          9.33981725         -1.22685064         33.80835843
   6          7.18012228         -2.47464531         33.79380379
   6          5.73968432         -2.47378234         33.79564881
   6          7.90003546          3.76126344         33.80602544
   6          9.34144519          3.76051956         33.81456980
   6         10.06089546          2.51368642         33.82201691
   6         11.50131625          2.51302449         33.85651716
   6         12.21924675          1.26409619         33.88970522
   6         13.66032159          1.25734863         33.98918465
   6         14.35897762          0.01901595         34.08739657
   6         15.82608534          0.01897482         34.49706995
   6         13.66045588         -1.21890172         33.98840489
   6         12.21939548         -1.22520977         33.88886770
   6         11.50169323         -2.47396835         33.85400339
   6         10.06129005         -2.47417049         33.81927811
   6          9.34196661         -3.72087863         33.80994048
   6          7.90052378         -3.72134822         33.80174272
   6         10.06198384          5.00811865         33.82328296
   6         11.50275750          5.00607237         33.84161006
   6         12.22160269          3.75874930         33.87031401
   6         13.66808891          3.75375267         33.91005771
   6         14.38306491          2.51634603         33.98829761
   6         15.83518744          2.51324747         33.98781116
   6         16.55906829          1.28934928         34.08591059
   6         17.98057377          1.27480294         33.98187593
   6         18.71005394          0.01887488         33.97830321
   6         20.13875847          0.01869033         33.89494685
   6         17.98109879         -1.23696609         33.98145356
   6         16.55967007         -1.25104252         34.08509500
   6         15.83590160         -2.47463355         33.98455089
   6         14.38378425         -2.47788920         33.98536950
   6         13.66883587         -3.71500682         33.90510112
   6         12.22236691         -3.71969616         33.86568944
   6         11.50362342         -4.96679908         33.83492828
   6         10.06285072         -4.96848166         33.81665343
   6         12.22198661          6.25669426         33.83964010
   6         13.66521446          6.25496842         33.83956034
   6         14.38597381          5.00885020         33.86841398
   6         15.82513823          5.00999094         33.85133564
   6         16.54897676          3.76395359         33.88436739
   6         17.98696328          3.76430430         33.85594716
   6         18.70597741          2.51916190         33.87841419
   6         20.14693805          2.51580366         33.84083537
   6         20.86599409          1.26894695         33.85290585
   6         22.30517510          1.26740891         33.82051632
   6         23.02837445          0.01859687         33.81672937
   6         24.46707969          0.01853834         33.80394919
   6         22.30547037         -1.23020575         33.81922295
   6         20.86629159         -1.23163476         33.85184570
   6         20.14754746         -2.47839925         33.83832593
   6         18.70660049         -2.48139256         33.87614653
   6         17.98782967         -3.72630842         33.85114301
   6         16.54981235         -3.72538003         33.87901447
   6         15.82612802         -4.97127270         33.84417120
   6         14.38704628         -4.97011226         33.86140085
   6         13.66644564         -6.21604022         33.83130858
   6         12.22319177         -6.21747955         33.83131500
   6         14.38349766          7.50398278         33.81847202
   6         15.82400216          7.50479255         33.80560530
   6         16.54463142          6.25822477         33.81288501
   6         17.98589013          6.25847732         33.79707477
   6         18.70742585          5.01338596         33.81126313
   6         20.14640709          5.01155403         33.79395013
   6         20.86720409          3.76333988         33.80488016
   6         22.30696107          3.76294192         33.79320908
   6         23.02694938          2.51496437         33.79999641
   6         24.46919230          2.51489960         33.79553562
   6         25.18857270          1.26792926         33.80035997
   6         26.63091539          1.26845866         33.80122550
   6         27.35163360          0.01825778         33.79720658
   6         28.79115139          0.01809579         33.78819251
   6         26.63107326         -1.23180745         33.80021468
   6         25.18888844         -1.23093485         33.79932176
   6         24.46972039         -2.47787414         33.79305381
   6         23.02746755         -2.47777072         33.79720834
   6         22.30778866         -3.72571541         33.78848353
   6         20.86795833         -3.72594686         33.80010134
   6         14.38494033         -7.46514035         33.80915942
   6         15.82539828         -7.46609662         33.79640725
   6         16.54593149         -6.21962952         33.80479977
   6         17.98710160         -6.22036039         33.78905812
   6         18.70846161         -4.97543861         33.80461567
   6         20.14741092         -4.97402494         33.78723492
   6         15.82572163          0.01937782         36.08302319
   1         16.87313959          0.05224095         36.46455078
   1         15.33106204         -0.90604449         36.46362191
   1         15.27548031          0.91173864         36.46308221
