 INFO
nunit      2    2    1
unit   cell
celltype   convcell
shape   parapipedal
 END_INFO
 DIM-GROUP
           3           1
 PRIMVEC
    2.1300000000    1.2298000000    0.0000000000
    2.1300000000   -1.2298000000    0.0000000000
    0.0000000000    0.0000000000   20.0000000000
 CONVVEC
    2.1300000000    1.2298000000    0.0000000000
    2.1300000000   -1.2298000000    0.0000000000
    0.0000000000    0.0000000000   20.0000000000
 PRIMCOORD
           2           1
  6      1.4400000000     0.0000000000    10.0000000000
  6      2.8800000000     0.0000000000    10.0000000000
 CONVCOORD
           2           1
  6      1.4400000000     0.0000000000    10.0000000000
  6      2.8800000000     0.0000000000    10.0000000000
 RECIP-PRIMVEC
    0.2347417840    0.4065701740   -0.0000000000

    0.2347417840   -0.4065701740   -0.0000000000

   -0.0000000000   -0.0000000000    0.0500000000

 RECIP-CONVVEC
    0.2347417840    0.4065701740   -0.0000000000

    0.2347417840   -0.4065701740   -0.0000000000

   -0.0000000000   -0.0000000000    0.0500000000

 WIGNER-SEITZ-PRIMCELL
           4
 -0.7099746E+00 -0.1229800E+01  0.1000000E+02  -0.8660177E+00 -0.5000134E+00  0.7805966E-17
 -0.1420025E+01  0.5425080E-14  0.1000000E+02  -0.8660177E+00 -0.5000134E+00  0.7805966E-17
 -0.1420025E+01 -0.2712540E-15 -0.1000000E+02  -0.8660177E+00 -0.5000134E+00  0.7805966E-17
 -0.7099746E+00 -0.1229800E+01 -0.1000000E+02  -0.8660177E+00 -0.5000134E+00  0.7805966E-17
           4
 -0.7099746E+00 -0.1229800E+01  0.1000000E+02  -0.0000000E+00 -0.1000000E+01 -0.0000000E+00
 -0.7099746E+00 -0.1229800E+01 -0.1000000E+02  -0.0000000E+00 -0.1000000E+01 -0.0000000E+00
  0.7099746E+00 -0.1229800E+01 -0.1000000E+02  -0.0000000E+00 -0.1000000E+01 -0.0000000E+00
  0.7099746E+00 -0.1229800E+01  0.1000000E+02  -0.0000000E+00 -0.1000000E+01 -0.0000000E+00
           4
 -0.7099746E+00  0.1229800E+01  0.1000000E+02  -0.8660177E+00  0.5000134E+00 -0.6446990E-16
 -0.7099746E+00  0.1229800E+01 -0.1000000E+02  -0.8660177E+00  0.5000134E+00 -0.6446990E-16
 -0.1420025E+01 -0.2712540E-15 -0.1000000E+02  -0.8660177E+00  0.5000134E+00 -0.6446990E-16
 -0.1420025E+01 -0.0000000E+00  0.1000000E+02  -0.8660177E+00  0.5000134E+00 -0.6446990E-16
           6
 -0.1420025E+01 -0.2712540E-15 -0.1000000E+02   0.0000000E+00 -0.5086194E-15 -0.1000000E+01
 -0.7099746E+00  0.1229800E+01 -0.1000000E+02   0.0000000E+00 -0.5086194E-15 -0.1000000E+01
  0.7099746E+00  0.1229800E+01 -0.1000000E+02   0.0000000E+00 -0.5086194E-15 -0.1000000E+01
  0.1420025E+01 -0.2712540E-15 -0.1000000E+02   0.0000000E+00 -0.5086194E-15 -0.1000000E+01
  0.7099746E+00 -0.1229800E+01 -0.1000000E+02   0.0000000E+00 -0.5086194E-15 -0.1000000E+01
 -0.7099746E+00 -0.1229800E+01 -0.1000000E+02   0.0000000E+00 -0.5086194E-15 -0.1000000E+01
           6
 -0.7099746E+00 -0.1229800E+01  0.1000000E+02  -0.0000000E+00 -0.2034477E-14  0.1000000E+01
  0.7099746E+00 -0.1229800E+01  0.1000000E+02  -0.0000000E+00 -0.2034477E-14  0.1000000E+01
  0.1420025E+01  0.1736025E-13  0.1000000E+02  -0.0000000E+00 -0.2034477E-14  0.1000000E+01
  0.7099746E+00  0.1229800E+01  0.1000000E+02  -0.0000000E+00 -0.2034477E-14  0.1000000E+01
 -0.7099746E+00  0.1229800E+01  0.1000000E+02  -0.0000000E+00 -0.2034477E-14  0.1000000E+01
 -0.1420025E+01  0.1736025E-13  0.1000000E+02  -0.0000000E+00 -0.2034477E-14  0.1000000E+01
           4
  0.7099746E+00 -0.1229800E+01 -0.1000000E+02   0.8660177E+00 -0.5000134E+00 -0.1356306E-16
  0.1420025E+01  0.2712540E-15 -0.1000000E+02   0.8660177E+00 -0.5000134E+00 -0.1356306E-16
  0.1420025E+01 -0.2712540E-15  0.1000000E+02   0.8660177E+00 -0.5000134E+00 -0.1356306E-16
  0.7099746E+00 -0.1229800E+01  0.1000000E+02   0.8660177E+00 -0.5000134E+00 -0.1356306E-16
           4
  0.7099746E+00  0.1229800E+01  0.1000000E+02   0.3127501E-15  0.1000000E+01  0.2345625E-16
  0.7099746E+00  0.1229800E+01 -0.1000000E+02   0.3127501E-15  0.1000000E+01  0.2345625E-16
 -0.7099746E+00  0.1229800E+01 -0.1000000E+02   0.3127501E-15  0.1000000E+01  0.2345625E-16
 -0.7099746E+00  0.1229800E+01  0.1000000E+02   0.3127501E-15  0.1000000E+01  0.2345625E-16
           4
  0.1420025E+01  0.0000000E+00  0.1000000E+02   0.8660177E+00  0.5000134E+00 -0.5090683E-16
  0.1420025E+01  0.2712540E-15 -0.1000000E+02   0.8660177E+00  0.5000134E+00 -0.5090683E-16
  0.7099746E+00  0.1229800E+01 -0.1000000E+02   0.8660177E+00  0.5000134E+00 -0.5090683E-16
  0.7099746E+00  0.1229800E+01  0.1000000E+02   0.8660177E+00  0.5000134E+00 -0.5090683E-16
 WIGNER-SEITZ-PRIMCELL_END
 WIGNER-SEITZ-CONVCELL
           4
 -0.7099746E+00 -0.1229800E+01  0.1000000E+02  -0.8660177E+00 -0.5000134E+00  0.7805966E-17
 -0.1420025E+01  0.5425080E-14  0.1000000E+02  -0.8660177E+00 -0.5000134E+00  0.7805966E-17
 -0.1420025E+01 -0.2712540E-15 -0.1000000E+02  -0.8660177E+00 -0.5000134E+00  0.7805966E-17
 -0.7099746E+00 -0.1229800E+01 -0.1000000E+02  -0.8660177E+00 -0.5000134E+00  0.7805966E-17
           4
 -0.7099746E+00 -0.1229800E+01  0.1000000E+02  -0.0000000E+00 -0.1000000E+01 -0.0000000E+00
 -0.7099746E+00 -0.1229800E+01 -0.1000000E+02  -0.0000000E+00 -0.1000000E+01 -0.0000000E+00
  0.7099746E+00 -0.1229800E+01 -0.1000000E+02  -0.0000000E+00 -0.1000000E+01 -0.0000000E+00
  0.7099746E+00 -0.1229800E+01  0.1000000E+02  -0.0000000E+00 -0.1000000E+01 -0.0000000E+00
           4
 -0.7099746E+00  0.1229800E+01  0.1000000E+02  -0.8660177E+00  0.5000134E+00 -0.6446990E-16
 -0.7099746E+00  0.1229800E+01 -0.1000000E+02  -0.8660177E+00  0.5000134E+00 -0.6446990E-16
 -0.1420025E+01 -0.2712540E-15 -0.1000000E+02  -0.8660177E+00  0.5000134E+00 -0.6446990E-16
 -0.1420025E+01 -0.0000000E+00  0.1000000E+02  -0.8660177E+00  0.5000134E+00 -0.6446990E-16
           6
 -0.1420025E+01 -0.2712540E-15 -0.1000000E+02   0.0000000E+00 -0.5086194E-15 -0.1000000E+01
 -0.7099746E+00  0.1229800E+01 -0.1000000E+02   0.0000000E+00 -0.5086194E-15 -0.1000000E+01
  0.7099746E+00  0.1229800E+01 -0.1000000E+02   0.0000000E+00 -0.5086194E-15 -0.1000000E+01
  0.1420025E+01 -0.2712540E-15 -0.1000000E+02   0.0000000E+00 -0.5086194E-15 -0.1000000E+01
  0.7099746E+00 -0.1229800E+01 -0.1000000E+02   0.0000000E+00 -0.5086194E-15 -0.1000000E+01
 -0.7099746E+00 -0.1229800E+01 -0.1000000E+02   0.0000000E+00 -0.5086194E-15 -0.1000000E+01
           6
 -0.7099746E+00 -0.1229800E+01  0.1000000E+02  -0.0000000E+00 -0.2034477E-14  0.1000000E+01
  0.7099746E+00 -0.1229800E+01  0.1000000E+02  -0.0000000E+00 -0.2034477E-14  0.1000000E+01
  0.1420025E+01  0.1736025E-13  0.1000000E+02  -0.0000000E+00 -0.2034477E-14  0.1000000E+01
  0.7099746E+00  0.1229800E+01  0.1000000E+02  -0.0000000E+00 -0.2034477E-14  0.1000000E+01
 -0.7099746E+00  0.1229800E+01  0.1000000E+02  -0.0000000E+00 -0.2034477E-14  0.1000000E+01
 -0.1420025E+01  0.1736025E-13  0.1000000E+02  -0.0000000E+00 -0.2034477E-14  0.1000000E+01
           4
  0.7099746E+00 -0.1229800E+01 -0.1000000E+02   0.8660177E+00 -0.5000134E+00 -0.1356306E-16
  0.1420025E+01  0.2712540E-15 -0.1000000E+02   0.8660177E+00 -0.5000134E+00 -0.1356306E-16
  0.1420025E+01 -0.2712540E-15  0.1000000E+02   0.8660177E+00 -0.5000134E+00 -0.1356306E-16
  0.7099746E+00 -0.1229800E+01  0.1000000E+02   0.8660177E+00 -0.5000134E+00 -0.1356306E-16
           4
  0.7099746E+00  0.1229800E+01  0.1000000E+02   0.3127501E-15  0.1000000E+01  0.2345625E-16
  0.7099746E+00  0.1229800E+01 -0.1000000E+02   0.3127501E-15  0.1000000E+01  0.2345625E-16
 -0.7099746E+00  0.1229800E+01 -0.1000000E+02   0.3127501E-15  0.1000000E+01  0.2345625E-16
 -0.7099746E+00  0.1229800E+01  0.1000000E+02   0.3127501E-15  0.1000000E+01  0.2345625E-16
           4
  0.1420025E+01  0.0000000E+00  0.1000000E+02   0.8660177E+00  0.5000134E+00 -0.5090683E-16
  0.1420025E+01  0.2712540E-15 -0.1000000E+02   0.8660177E+00  0.5000134E+00 -0.5090683E-16
  0.7099746E+00  0.1229800E+01 -0.1000000E+02   0.8660177E+00  0.5000134E+00 -0.5090683E-16
  0.7099746E+00  0.1229800E+01  0.1000000E+02   0.8660177E+00  0.5000134E+00 -0.5090683E-16
 WIGNER-SEITZ-CONVCELL_END
 BRILLOUIN-ZONE-PRIMCELL
           4
 -0.2347418E+00  0.1355186E+00  0.2500000E-01  -0.1000000E+01  0.0000000E+00  0.0000000E+00
 -0.2347418E+00  0.1355186E+00 -0.2500000E-01  -0.1000000E+01  0.0000000E+00  0.0000000E+00
 -0.2347418E+00 -0.1355186E+00 -0.2500000E-01  -0.1000000E+01  0.0000000E+00  0.0000000E+00
 -0.2347418E+00 -0.1355186E+00  0.2500000E-01  -0.1000000E+01  0.0000000E+00  0.0000000E+00
           4
 -0.2347418E+00 -0.1355186E+00 -0.2500000E-01  -0.5000134E+00 -0.8660177E+00 -0.0000000E+00
  0.0000000E+00 -0.2710516E+00 -0.2500000E-01  -0.5000134E+00 -0.8660177E+00 -0.0000000E+00
  0.0000000E+00 -0.2710516E+00  0.2500000E-01  -0.5000134E+00 -0.8660177E+00 -0.0000000E+00
 -0.2347418E+00 -0.1355186E+00  0.2500000E-01  -0.5000134E+00 -0.8660177E+00 -0.0000000E+00
           4
 -0.2347418E+00  0.1355186E+00  0.2500000E-01  -0.5000134E+00  0.8660177E+00  0.0000000E+00
 -0.0000000E+00  0.2710516E+00  0.2500000E-01  -0.5000134E+00  0.8660177E+00  0.0000000E+00
 -0.0000000E+00  0.2710516E+00 -0.2500000E-01  -0.5000134E+00  0.8660177E+00  0.0000000E+00
 -0.2347418E+00  0.1355186E+00 -0.2500000E-01  -0.5000134E+00  0.8660177E+00  0.0000000E+00
           6
 -0.2347418E+00 -0.1355186E+00 -0.2500000E-01   0.1363268E-16  0.0000000E+00 -0.1000000E+01
 -0.2347418E+00  0.1355186E+00 -0.2500000E-01   0.1363268E-16  0.0000000E+00 -0.1000000E+01
 -0.0000000E+00  0.2710516E+00 -0.2500000E-01   0.1363268E-16  0.0000000E+00 -0.1000000E+01
  0.2347418E+00  0.1355186E+00 -0.2500000E-01   0.1363268E-16  0.0000000E+00 -0.1000000E+01
  0.2347418E+00 -0.1355186E+00 -0.2500000E-01   0.1363268E-16  0.0000000E+00 -0.1000000E+01
  0.0000000E+00 -0.2710516E+00 -0.2500000E-01   0.1363268E-16  0.0000000E+00 -0.1000000E+01
           6
  0.8520118E-17 -0.2710516E+00  0.2500000E-01  -0.0000000E+00 -0.0000000E+00  0.1000000E+01
  0.2347418E+00 -0.1355186E+00  0.2500000E-01  -0.0000000E+00 -0.0000000E+00  0.1000000E+01
  0.2347418E+00  0.1355186E+00  0.2500000E-01  -0.0000000E+00 -0.0000000E+00  0.1000000E+01
  0.8520118E-17  0.2710516E+00  0.2500000E-01  -0.0000000E+00 -0.0000000E+00  0.1000000E+01
 -0.2347418E+00  0.1355186E+00  0.2500000E-01  -0.0000000E+00 -0.0000000E+00  0.1000000E+01
 -0.2347418E+00 -0.1355186E+00  0.2500000E-01  -0.0000000E+00 -0.0000000E+00  0.1000000E+01
           4
  0.0000000E+00 -0.2710516E+00 -0.2500000E-01   0.5000134E+00 -0.8660177E+00 -0.0000000E+00
  0.2347418E+00 -0.1355186E+00 -0.2500000E-01   0.5000134E+00 -0.8660177E+00 -0.0000000E+00
  0.2347418E+00 -0.1355186E+00  0.2500000E-01   0.5000134E+00 -0.8660177E+00 -0.0000000E+00
  0.0000000E+00 -0.2710516E+00  0.2500000E-01   0.5000134E+00 -0.8660177E+00 -0.0000000E+00
           4
 -0.0000000E+00  0.2710516E+00  0.2500000E-01   0.5000134E+00  0.8660177E+00  0.0000000E+00
  0.2347418E+00  0.1355186E+00  0.2500000E-01   0.5000134E+00  0.8660177E+00  0.0000000E+00
  0.2347418E+00  0.1355186E+00 -0.2500000E-01   0.5000134E+00  0.8660177E+00  0.0000000E+00
 -0.0000000E+00  0.2710516E+00 -0.2500000E-01   0.5000134E+00  0.8660177E+00  0.0000000E+00
           4
  0.2347418E+00 -0.1355186E+00  0.2500000E-01   0.1000000E+01 -0.0000000E+00 -0.0000000E+00
  0.2347418E+00 -0.1355186E+00 -0.2500000E-01   0.1000000E+01 -0.0000000E+00 -0.0000000E+00
  0.2347418E+00  0.1355186E+00 -0.2500000E-01   0.1000000E+01 -0.0000000E+00 -0.0000000E+00
  0.2347418E+00  0.1355186E+00  0.2500000E-01   0.1000000E+01 -0.0000000E+00 -0.0000000E+00
 BRILLOUIN-ZONE-PRIMCELL_END
 BRILLOUIN-ZONE-CONVCELL
           4
 -0.2347418E+00  0.1355186E+00  0.2500000E-01  -0.1000000E+01  0.0000000E+00  0.0000000E+00
 -0.2347418E+00  0.1355186E+00 -0.2500000E-01  -0.1000000E+01  0.0000000E+00  0.0000000E+00
 -0.2347418E+00 -0.1355186E+00 -0.2500000E-01  -0.1000000E+01  0.0000000E+00  0.0000000E+00
 -0.2347418E+00 -0.1355186E+00  0.2500000E-01  -0.1000000E+01  0.0000000E+00  0.0000000E+00
           4
 -0.2347418E+00 -0.1355186E+00 -0.2500000E-01  -0.5000134E+00 -0.8660177E+00 -0.0000000E+00
  0.0000000E+00 -0.2710516E+00 -0.2500000E-01  -0.5000134E+00 -0.8660177E+00 -0.0000000E+00
  0.0000000E+00 -0.2710516E+00  0.2500000E-01  -0.5000134E+00 -0.8660177E+00 -0.0000000E+00
 -0.2347418E+00 -0.1355186E+00  0.2500000E-01  -0.5000134E+00 -0.8660177E+00 -0.0000000E+00
           4
 -0.2347418E+00  0.1355186E+00  0.2500000E-01  -0.5000134E+00  0.8660177E+00  0.0000000E+00
 -0.0000000E+00  0.2710516E+00  0.2500000E-01  -0.5000134E+00  0.8660177E+00  0.0000000E+00
 -0.0000000E+00  0.2710516E+00 -0.2500000E-01  -0.5000134E+00  0.8660177E+00  0.0000000E+00
 -0.2347418E+00  0.1355186E+00 -0.2500000E-01  -0.5000134E+00  0.8660177E+00  0.0000000E+00
           6
 -0.2347418E+00 -0.1355186E+00 -0.2500000E-01   0.1363268E-16  0.0000000E+00 -0.1000000E+01
 -0.2347418E+00  0.1355186E+00 -0.2500000E-01   0.1363268E-16  0.0000000E+00 -0.1000000E+01
 -0.0000000E+00  0.2710516E+00 -0.2500000E-01   0.1363268E-16  0.0000000E+00 -0.1000000E+01
  0.2347418E+00  0.1355186E+00 -0.2500000E-01   0.1363268E-16  0.0000000E+00 -0.1000000E+01
  0.2347418E+00 -0.1355186E+00 -0.2500000E-01   0.1363268E-16  0.0000000E+00 -0.1000000E+01
  0.0000000E+00 -0.2710516E+00 -0.2500000E-01   0.1363268E-16  0.0000000E+00 -0.1000000E+01
           6
  0.8520118E-17 -0.2710516E+00  0.2500000E-01  -0.0000000E+00 -0.0000000E+00  0.1000000E+01
  0.2347418E+00 -0.1355186E+00  0.2500000E-01  -0.0000000E+00 -0.0000000E+00  0.1000000E+01
  0.2347418E+00  0.1355186E+00  0.2500000E-01  -0.0000000E+00 -0.0000000E+00  0.1000000E+01
  0.8520118E-17  0.2710516E+00  0.2500000E-01  -0.0000000E+00 -0.0000000E+00  0.1000000E+01
 -0.2347418E+00  0.1355186E+00  0.2500000E-01  -0.0000000E+00 -0.0000000E+00  0.1000000E+01
 -0.2347418E+00 -0.1355186E+00  0.2500000E-01  -0.0000000E+00 -0.0000000E+00  0.1000000E+01
           4
  0.0000000E+00 -0.2710516E+00 -0.2500000E-01   0.5000134E+00 -0.8660177E+00 -0.0000000E+00
  0.2347418E+00 -0.1355186E+00 -0.2500000E-01   0.5000134E+00 -0.8660177E+00 -0.0000000E+00
  0.2347418E+00 -0.1355186E+00  0.2500000E-01   0.5000134E+00 -0.8660177E+00 -0.0000000E+00
  0.0000000E+00 -0.2710516E+00  0.2500000E-01   0.5000134E+00 -0.8660177E+00 -0.0000000E+00
           4
 -0.0000000E+00  0.2710516E+00  0.2500000E-01   0.5000134E+00  0.8660177E+00  0.0000000E+00
  0.2347418E+00  0.1355186E+00  0.2500000E-01   0.5000134E+00  0.8660177E+00  0.0000000E+00
  0.2347418E+00  0.1355186E+00 -0.2500000E-01   0.5000134E+00  0.8660177E+00  0.0000000E+00
 -0.0000000E+00  0.2710516E+00 -0.2500000E-01   0.5000134E+00  0.8660177E+00  0.0000000E+00
           4
  0.2347418E+00 -0.1355186E+00  0.2500000E-01   0.1000000E+01 -0.0000000E+00 -0.0000000E+00
  0.2347418E+00 -0.1355186E+00 -0.2500000E-01   0.1000000E+01 -0.0000000E+00 -0.0000000E+00
  0.2347418E+00  0.1355186E+00 -0.2500000E-01   0.1000000E+01 -0.0000000E+00 -0.0000000E+00
  0.2347418E+00  0.1355186E+00  0.2500000E-01   0.1000000E+01 -0.0000000E+00 -0.0000000E+00
 BRILLOUIN-ZONE-CONVCELL_END
 ATOMS
    6    1.4400000000    0.0000000000   10.0000000000
    6    2.8800000000    0.0000000000   10.0000000000
    6    3.5700000000   -1.2298000000   10.0000000000
    6    5.0100000000   -1.2298000000   10.0000000000
    6    3.5700000000    1.2298000000   10.0000000000
    6    5.0100000000    1.2298000000   10.0000000000
    6    5.7000000000    0.0000000000   10.0000000000
    6    7.1400000000    0.0000000000   10.0000000000
 FRAMES
1      0.0000000000    0.0000000000    0.0000000000      2.1300000000    1.2298000000    0.0000000000
1      0.0000000000    0.0000000000    0.0000000000      2.1300000000   -1.2298000000    0.0000000000
1      0.0000000000    0.0000000000    0.0000000000      0.0000000000    0.0000000000   20.0000000000
1      0.0000000000    0.0000000000   20.0000000000      2.1300000000    1.2298000000   20.0000000000
1      0.0000000000    0.0000000000   20.0000000000      2.1300000000   -1.2298000000   20.0000000000
1      2.1300000000   -1.2298000000    0.0000000000      4.2600000000    0.0000000000    0.0000000000
1      2.1300000000   -1.2298000000    0.0000000000      4.2600000000   -2.4596000000    0.0000000000
1      2.1300000000   -1.2298000000    0.0000000000      2.1300000000   -1.2298000000   20.0000000000
1      2.1300000000   -1.2298000000   20.0000000000      4.2600000000    0.0000000000   20.0000000000
1      2.1300000000   -1.2298000000   20.0000000000      4.2600000000   -2.4596000000   20.0000000000
1      4.2600000000   -2.4596000000    0.0000000000      6.3900000000   -1.2298000000    0.0000000000
1      4.2600000000   -2.4596000000    0.0000000000      4.2600000000   -2.4596000000   20.0000000000
1      4.2600000000   -2.4596000000   20.0000000000      6.3900000000   -1.2298000000   20.0000000000
1      2.1300000000    1.2298000000    0.0000000000      4.2600000000    2.4596000000    0.0000000000
1      2.1300000000    1.2298000000    0.0000000000      4.2600000000    0.0000000000    0.0000000000
1      2.1300000000    1.2298000000    0.0000000000      2.1300000000    1.2298000000   20.0000000000
1      2.1300000000    1.2298000000   20.0000000000      4.2600000000    2.4596000000   20.0000000000
1      2.1300000000    1.2298000000   20.0000000000      4.2600000000    0.0000000000   20.0000000000
1      4.2600000000    0.0000000000    0.0000000000      6.3900000000    1.2298000000    0.0000000000
1      4.2600000000    0.0000000000    0.0000000000      6.3900000000   -1.2298000000    0.0000000000
1      4.2600000000    0.0000000000    0.0000000000      4.2600000000    0.0000000000   20.0000000000
1      4.2600000000    0.0000000000   20.0000000000      6.3900000000    1.2298000000   20.0000000000
1      4.2600000000    0.0000000000   20.0000000000      6.3900000000   -1.2298000000   20.0000000000
1      6.3900000000   -1.2298000000    0.0000000000      8.5200000000    0.0000000000    0.0000000000
1      6.3900000000   -1.2298000000    0.0000000000      6.3900000000   -1.2298000000   20.0000000000
1      6.3900000000   -1.2298000000   20.0000000000      8.5200000000    0.0000000000   20.0000000000
1      4.2600000000    2.4596000000    0.0000000000      6.3900000000    1.2298000000    0.0000000000
1      4.2600000000    2.4596000000    0.0000000000      4.2600000000    2.4596000000   20.0000000000
1      4.2600000000    2.4596000000   20.0000000000      6.3900000000    1.2298000000   20.0000000000
1      6.3900000000    1.2298000000    0.0000000000      8.5200000000    0.0000000000    0.0000000000
1      6.3900000000    1.2298000000    0.0000000000      6.3900000000    1.2298000000   20.0000000000
1      6.3900000000    1.2298000000   20.0000000000      8.5200000000    0.0000000000   20.0000000000
1      8.5200000000    0.0000000000    0.0000000000      8.5200000000    0.0000000000   20.0000000000
